%mem=4GB
%nprocshared=1
%chk=smartfield4gau.chk
#p Amber=(SoftFirst,Print) nosymm geom=nocrowd opt
 
Title

0 1
C-CT  1.956897  -0.120392  0.000000 
H-HC  2.742005  0.637259  -0.000000 
H-HC  2.103753  -0.749379  -0.880760 
H-HC  2.103753  -0.749379  0.880760 
C-CT  0.566957  0.512915  -0.000000 
H-HC  0.461751  1.163403  -0.874026 
H-HC  0.461751  1.163404  0.874026 
C-CT  -0.566957  -0.512915  -0.000000 
H-HC  -0.461751  -1.163403  -0.874026 
H-HC  -0.461751  -1.163404  0.874026 
C-CT  -1.956897  0.120392  0.000000 
H-HC  -2.103753  0.749379  -0.880760 
H-HC  -2.742005  -0.637259  0.000000 
H-HC  -2.103753  0.749379  0.880760 


! Master function
NonBon 3 1 0 0 0.000 0.000 0.500 0.000 0.000 -1.2

! SMARTFIELD FF
HrmStr1 CT CT  310.722  1.528
HrmStr1 CT HC  368.683  1.093

