%mem=4GB
%nprocshared=1
%chk=smartfield4gau.chk
#p Amber=(SoftFirst,Print) nosymm geom=nocrowd opt
 
Title

0 1
C-CT  1.956897  -0.120392  0.000000 
H-HC  2.742005  0.637259  -0.000000 
H-HC  2.103753  -0.749379  -0.880760 
H-HC  2.103753  -0.749379  0.880760 
C-CT  0.566957  0.512915  -0.000000 
H-HC  0.461751  1.163403  -0.874026 
H-HC  0.461751  1.163404  0.874026 
C-CT  -0.566957  -0.512915  -0.000000 
H-HC  -0.461751  -1.163403  -0.874026 
H-HC  -0.461751  -1.163404  0.874026 
C-CT  -1.956897  0.120392  0.000000 
H-HC  -2.103753  0.749379  -0.880760 
H-HC  -2.742005  -0.637259  0.000000 
H-HC  -2.103753  0.749379  0.880760 


! Master function
NonBon 3 1 0 0 0.000 0.000 0.500 0.000 0.000 -1.2

! SMARTFIELD FF
!Bonds
HrmStr1 CT HC  374.524  1.091
HrmStr1 CT HC  371.655  1.092
HrmStr1 CT HC  371.655  1.092
HrmStr1 CT CT  312.451  1.527
HrmStr1 CT HC  362.790  1.095
HrmStr1 CT HC  362.790  1.095
HrmStr1 CT CT  307.263  1.529
HrmStr1 CT HC  362.790  1.095
HrmStr1 CT HC  362.790  1.095
HrmStr1 CT CT  312.451  1.527
HrmStr1 CT HC  371.655  1.092
HrmStr1 CT HC  374.524  1.091
HrmStr1 CT HC  371.655  1.092
!Angles
HrmBnd1 HC CT HC  44.162  107.647
HrmBnd1 HC CT HC  44.162  107.647
HrmBnd1 HC CT CT  43.725  111.524
HrmBnd1 HC CT HC  44.110  107.491
HrmBnd1 HC CT CT  44.503  111.170
HrmBnd1 HC CT CT  44.503  111.170
HrmBnd1 CT CT HC  55.654  109.504
HrmBnd1 CT CT HC  55.654  109.504
HrmBnd1 CT CT CT  62.616  113.369
HrmBnd1 HC CT HC  43.680  105.974
HrmBnd1 HC CT CT  55.984  109.112
HrmBnd1 HC CT CT  55.984  109.112
HrmBnd1 CT CT HC  55.984  109.112
HrmBnd1 CT CT HC  55.984  109.112
HrmBnd1 CT CT CT  62.616  113.369
HrmBnd1 HC CT HC  43.680  105.974
HrmBnd1 HC CT CT  55.654  109.504
HrmBnd1 HC CT CT  55.654  109.504
HrmBnd1 CT CT HC  44.503  111.170
HrmBnd1 CT CT HC  43.725  111.524
HrmBnd1 CT CT HC  44.503  111.170
HrmBnd1 HC CT HC  44.162  107.647
HrmBnd1 HC CT HC  44.110  107.491
HrmBnd1 HC CT HC  44.162  107.647

