%mem=4GB
%nprocshared=1
%chk=smartfield4gau.chk
#p Amber=(SoftFirst,Print) nosymm geom=nocrowd opt
 
Title

0 1
C-CT  1.956897  -0.120392  0.000000 
H-HC  2.742005  0.637259  -0.000000 
H-HC  2.103753  -0.749379  -0.880760 
H-HC  2.103753  -0.749379  0.880760 
C-CT  0.566957  0.512915  -0.000000 
H-HC  0.461751  1.163403  -0.874026 
H-HC  0.461751  1.163404  0.874026 
C-CT  -0.566957  -0.512915  -0.000000 
H-HC  -0.461751  -1.163403  -0.874026 
H-HC  -0.461751  -1.163404  0.874026 
C-CT  -1.956897  0.120392  0.000000 
H-HC  -2.103753  0.749379  -0.880760 
H-HC  -2.742005  -0.637259  0.000000 
H-HC  -2.103753  0.749379  0.880760 


! Master function
NonBon 3 1 0 0 0.000 0.000 0.500 0.000 0.000 -1.2

! SMARTFIELD FF
!Bonds
HrmStr1 CT HC  374.194  1.091
HrmStr1 CT HC  371.301  1.092
HrmStr1 CT HC  371.301  1.092
HrmStr1 CT CT  302.790  1.527
HrmStr1 CT HC  362.112  1.095
HrmStr1 CT HC  362.111  1.095
HrmStr1 CT CT  291.766  1.529
HrmStr1 CT HC  362.111  1.095
HrmStr1 CT HC  362.111  1.095
HrmStr1 CT CT  302.790  1.527
HrmStr1 CT HC  371.302  1.092
HrmStr1 CT HC  374.194  1.091
HrmStr1 CT HC  371.300  1.092
!Angles
HrmBnd1 HC CT HC  42.903  107.647
HrmBnd1 HC CT HC  42.903  107.647
HrmBnd1 HC CT CT  42.517  111.524
HrmBnd1 HC CT HC  43.286  107.491
HrmBnd1 HC CT CT  41.651  111.170
HrmBnd1 HC CT CT  41.651  111.170
HrmBnd1 CT CT HC  51.305  109.504
HrmBnd1 CT CT HC  51.307  109.504
HrmBnd1 CT CT CT  48.304  113.369
HrmBnd1 HC CT HC  41.745  105.974
HrmBnd1 HC CT CT  50.318  109.112
HrmBnd1 HC CT CT  50.326  109.112
HrmBnd1 CT CT HC  50.326  109.112
HrmBnd1 CT CT HC  50.318  109.112
HrmBnd1 CT CT CT  48.303  113.369
HrmBnd1 HC CT HC  41.745  105.974
HrmBnd1 HC CT CT  51.308  109.504
HrmBnd1 HC CT CT  51.304  109.504
HrmBnd1 CT CT HC  41.638  111.170
HrmBnd1 CT CT HC  42.517  111.524
HrmBnd1 CT CT HC  41.663  111.170
HrmBnd1 HC CT HC  42.899  107.647
HrmBnd1 HC CT HC  43.286  107.491
HrmBnd1 HC CT HC  42.908  107.647
! Torsions
AmbTrs HC CT CT HC 0 0 0 0  0.00 0.00 3.09 0.  9
AmbTrs HC CT CT HC 0 0 0 0  0.00 0.00 3.09 0.  9
AmbTrs HC CT CT CT 0 0 0 0  0.00 0.00 1.90 0.  9
AmbTrs HC CT CT HC 0 0 0 0  0.00 0.00 1.40 0.  9
AmbTrs HC CT CT HC 0 0 0 0  0.00 0.00 1.82 0.  9
AmbTrs HC CT CT CT 0 0 0 0  0.00 0.00 2.02 0.  9
AmbTrs HC CT CT HC 0 0 0 0  0.00 0.00 1.82 0.  9
AmbTrs HC CT CT HC 0 0 0 0  0.00 0.00 1.40 0.  9
AmbTrs HC CT CT CT 0 0 0 0  0.00 0.00 2.02 0.  9
AmbTrs CT CT CT HC 0 0 0 0  0.00 0.00 1.82 0.  9
AmbTrs CT CT CT HC 0 0 0 0  0.00 0.00 1.82 0.  9
AmbTrs CT CT CT CT 0 0 0 0  0.00 0.00 1.88 0.  9
AmbTrs HC CT CT HC 0 0 0 0  0.00 0.00 3.13 0.  9
AmbTrs HC CT CT HC 0 0 0 0  0.00 0.00 1.82 0.  9
AmbTrs HC CT CT CT 0 0 0 0  0.00 0.00 1.82 0.  9
AmbTrs HC CT CT HC 0 0 0 0  0.00 0.00 1.82 0.  9
AmbTrs HC CT CT HC 0 0 0 0  0.00 0.00 3.13 0.  9
AmbTrs HC CT CT CT 0 0 0 0  0.00 0.00 1.82 0.  9
AmbTrs CT CT CT HC 0 0 0 0  0.00 0.00 2.02 0.  9
AmbTrs CT CT CT HC 0 0 0 0  0.00 0.00 1.90 0.  9
AmbTrs CT CT CT HC 0 0 0 0  0.00 0.00 2.02 0.  9
AmbTrs HC CT CT HC 0 0 0 0  0.00 0.00 1.40 0.  9
AmbTrs HC CT CT HC 0 0 0 0  0.00 0.00 3.09 0.  9
AmbTrs HC CT CT HC 0 0 0 0  0.00 0.00 1.82 0.  9
AmbTrs HC CT CT HC 0 0 0 0  0.00 0.00 1.82 0.  9
AmbTrs HC CT CT HC 0 0 0 0  0.00 0.00 3.09 0.  9
AmbTrs HC CT CT HC 0 0 0 0  0.00 0.00 1.40 0.  9

