%mem=1GB
%nprocshared=1
%chk=GauHarm.chk
#p Amber=(SoftOnly,Print) nosymm  Freq=intmodes
 
Title

0 1
H-HA-0.00  -1.009677  2.505917  0.000000
H-HA-0.00  -0.917442  -2.495849  -0.000000
H-HA-0.00  -3.061910  -1.262584  0.000000
H-HA-0.00  3.453102  -0.082375  0.000001
H-HA-0.00  1.993210  2.173240  0.000000
C-CA-0.00  1.620451  1.163136  -0.000000
C-CA-0.00  2.382297  0.030455  0.000000
C-CA-0.00  0.248141  0.748383  -0.000000
N-NA-0.00  1.561959  -1.077509  0.000000
C-CA-0.00  0.247035  -0.670140  -0.000000
C-CA-0.00  -0.979704  1.423874  -0.000000
C-CA-0.00  -0.932234  -1.413394  -0.000000
C-CA-0.00  -2.151543  0.689333  0.000000
C-CA-0.00  -2.128208  -0.716107  0.000000
H-HA-0.00  -3.104872  1.200941  0.000001
H-HA-0.00  1.876463  -2.029966  0.000000

! Master function
NonBon 3 1 0 0 0.000 0.000 0.500 0.000 0.000 -1.2
! SMARTFIELD FF
!Bonds
HrmStr1 CA NA  1.0  1.398
HrmStr1 CA HA  1.0  1.082
HrmStr1 CA CA  1.0  1.379
HrmStr1 HA NA  1.0  1.080
!Angles
HrmBnd1 CA CA CA  1.0  118.704
HrmBnd1 CA CA HA  1.0  119.435
HrmBnd1 CA CA NA  1.0  108.364
HrmBnd1 CA NA CA  1.0  109.303
HrmBnd1 CA NA HA  1.0  125.348
HrmBnd1 HA CA NA  1.0  122.778

