%mem=1GB
%nprocshared=1
%chk=SmartField4gau.chk
#p Amber=(SoftFirst,Print) nosymm geom=nocrowd opt Freq

Title

0 1
H-H0-+0.093932  -1.009677  2.505917  0.000000
H-H1-+0.093275  -0.917442  -2.495849  -0.000000
H-H2-+0.090619  -3.061910  -1.262584  0.000000
H-H3-+0.111621  3.453102  -0.082375  0.000001
H-H4-+0.096456  1.993210  2.173240  0.000000
C-C5--0.131647  1.620451  1.163136  -0.000000
C-C6--0.001193  2.382297  0.030455  0.000000
C-C7--0.026843  0.248141  0.748383  -0.000000
N-N8--0.412282  1.561959  -1.077509  0.000000
C-C9-+0.087766  0.247035  -0.670140  -0.000000
C-C10--0.096803  -0.979704  1.423874  -0.000000
C-C11--0.109301  -0.932234  -1.413394  -0.000000
C-C12--0.111902  -2.151543  0.689333  0.000000
C-C13--0.106243  -2.128208  -0.716107  0.000000
H-H14-+0.089583  -3.104872  1.200941  0.000001
H-H15-+0.332999  1.876463  -2.029966  0.000000

!Master function
NonBon 3 1 0 0 0.000 0.000 0.500 0.000 0.000 -1.2
!SMARTFIELD FF
!Bonds
HrmStr1 C10 C12  421.235 1.383
HrmStr1 C11 C13  419.298 1.384
HrmStr1 C12 C13  371.213 1.406
HrmStr1 C12 H14  399.237 1.082
HrmStr1 C5 C6  427.212 1.365
HrmStr1 C5 C7  306.451 1.434
HrmStr1 C6 N8  346.585 1.379
HrmStr1 C7 C10  385.119 1.401
HrmStr1 C7 C9  266.492 1.419
HrmStr1 C9 C11  395.301 1.394
HrmStr1 H0 C10  398.264 1.082
HrmStr1 H1 C11  397.776 1.083
HrmStr1 H2 C13  399.606 1.082
HrmStr1 H3 C6  416.050 1.077
HrmStr1 H4 C5  415.136 1.077
HrmStr1 N8 C9  350.307 1.377
HrmStr1 N8 H15  539.038 1.003
!Angles
HrmBnd1 C10 C12 C13  65.518 121.129
HrmBnd1 C10 C12 H14  42.143 119.699
HrmBnd1 C11 C13 C12  65.374 121.195
HrmBnd1 C13 C12 H14  42.061 119.172
HrmBnd1 C5 C6 N8  92.240 109.559
HrmBnd1 C5 C7 C10  67.411 134.367
HrmBnd1 C5 C7 C9  98.781 106.861
HrmBnd1 C6 C5 C7  98.062 107.109
HrmBnd1 C6 N8 C9  96.175 109.303
HrmBnd1 C6 N8 H15  41.513 125.210
HrmBnd1 C7 C10 C12  70.019 119.102
HrmBnd1 C7 C9 C11  68.589 122.266
HrmBnd1 C7 C9 N8  98.409 107.169
HrmBnd1 C9 C11 C13  69.712 117.535
HrmBnd1 C9 C7 C10  67.874 118.772
HrmBnd1 C9 N8 H15  41.749 125.487
HrmBnd1 H0 C10 C12  41.587 120.494
HrmBnd1 H0 C10 C7  41.770 120.404
HrmBnd1 H1 C11 C13  41.025 121.026
HrmBnd1 H1 C11 C9  40.743 121.439
HrmBnd1 H2 C13 C11  42.122 119.417
HrmBnd1 H2 C13 C12  41.988 119.388
HrmBnd1 H3 C6 C5  40.087 129.940
HrmBnd1 H3 C6 N8  44.067 120.501
HrmBnd1 H4 C5 C6  39.781 125.820
HrmBnd1 H4 C5 C7  39.493 127.072
HrmBnd1 N8 C9 C11  71.334 130.565
!Torsions
AmbTrs C10 C12 C13 C11 0  180  0  0 0.00 15.23 0.00 0. 4.0
AmbTrs C10 C12 C13 H2 0  180  0  0 0.00 13.76 0.00 0. 4.0
AmbTrs C10 C7 C9 C11 0  180  0  0 0.00 15.38 0.00 0. 4.0
AmbTrs C10 C7 C9 N8 0  180  0  0 0.00 13.65 0.00 0. 4.0
AmbTrs C5 C6 N8 C9 0  180  0  0 0.00 14.86 0.00 0. 4.0
AmbTrs C5 C6 N8 H15 0  180  0  0 0.00 14.40 0.00 0. 4.0
AmbTrs C5 C7 C10 C12 0  180  0  0 0.00 13.45 0.00 0. 4.0
AmbTrs C5 C7 C10 H0 0  180  0  0 0.00 15.36 0.00 0. 4.0
AmbTrs C5 C7 C9 C11 0  180  0  0 0.00 14.00 0.00 0. 4.0
AmbTrs C5 C7 C9 N8 0  180  0  0 0.00 15.09 0.00 0. 4.0
AmbTrs C6 C5 C7 C10 0  180  0  0 0.00 13.64 0.00 0. 4.0
AmbTrs C6 C5 C7 C9 0  180  0  0 0.00 14.95 0.00 0. 4.0
AmbTrs C6 N8 C9 C11 0  180  0  0 0.00 13.74 0.00 0. 4.0
AmbTrs C6 N8 C9 C7 0  180  0  0 0.00 15.02 0.00 0. 4.0
AmbTrs C7 C10 C12 C13 0  180  0  0 0.00 15.23 0.00 0. 4.0
AmbTrs C7 C10 C12 H14 0  180  0  0 0.00 13.47 0.00 0. 4.0
AmbTrs C7 C5 C6 H3 0  180  0  0 0.00 13.69 0.00 0. 4.0
AmbTrs C7 C5 C6 N8 0  180  0  0 0.00 14.83 0.00 0. 4.0
AmbTrs C7 C9 C11 C13 0  180  0  0 0.00 15.31 0.00 0. 4.0
AmbTrs C7 C9 C11 H1 0  180  0  0 0.00 14.12 0.00 0. 4.0
AmbTrs C9 C11 C13 C12 0  180  0  0 0.00 15.23 0.00 0. 4.0
AmbTrs C9 C11 C13 H2 0  180  0  0 0.00 13.52 0.00 0. 4.0
AmbTrs C9 C7 C10 C12 0  180  0  0 0.00 15.28 0.00 0. 4.0
AmbTrs C9 C7 C10 H0 0  180  0  0 0.00 13.94 0.00 0. 4.0
AmbTrs H0 C10 C12 C13 0  180  0  0 0.00 13.69 0.00 0. 4.0
AmbTrs H0 C10 C12 H14 0  180  0  0 0.00 15.35 0.00 0. 4.0
AmbTrs H1 C11 C13 C12 0  180  0  0 0.00 13.78 0.00 0. 4.0
AmbTrs H1 C11 C13 H2 0  180  0  0 0.00 15.36 0.00 0. 4.0
AmbTrs H14 C12 C13 C11 0  180  0  0 0.00 13.70 0.00 0. 4.0
AmbTrs H14 C12 C13 H2 0  180  0  0 0.00 15.36 0.00 0. 4.0
AmbTrs H15 N8 C9 C11 0  180  0  0 0.00 15.48 0.00 0. 4.0
AmbTrs H15 N8 C9 C7 0  180  0  0 0.00 14.75 0.00 0. 4.0
AmbTrs H3 C6 N8 C9 0  180  0  0 0.00 13.76 0.00 0. 4.0
AmbTrs H3 C6 N8 H15 0  180  0  0 0.00 15.43 0.00 0. 4.0
AmbTrs H4 C5 C6 H3 0  180  0  0 0.00 15.41 0.00 0. 4.0
AmbTrs H4 C5 C6 N8 0  180  0  0 0.00 13.45 0.00 0. 4.0
AmbTrs H4 C5 C7 C10 0  180  0  0 0.00 15.43 0.00 0. 4.0
AmbTrs H4 C5 C7 C9 0  180  0  0 0.00 14.03 0.00 0. 4.0
AmbTrs N8 C9 C11 C13 0  180  0  0 0.00 13.18 0.00 0. 4.0
AmbTrs N8 C9 C11 H1 0  180  0  0 0.00 15.36 0.00 0. 4.0

