%mem=1GB
%nprocshared=4
%chk=nb_2.chk
#P Amber=SoftOnly  Geom=Connectivity   Freq=intmodes

Title Card Required

0 1
 C-C-+0.266361               -0.53685000    0.10417400    0.01463600
 O-OH--0.369148                -1.63632200   -0.67637300   -0.06826800
 C-CT--0.052402                 0.72601300   -0.71770000    0.10528000
 H-HC-+0.101822                 0.71699400   -1.15712100    1.11444700
 H-HC-+0.110601                 0.64338000   -1.55379500   -0.59228100
 N-N3--0.660830                 1.88901300    0.09773300   -0.19509700
 H-H-+0.284523                1.74815900    1.04080700    0.14592500
 H-H-+0.286815                2.72353600   -0.27843200    0.23188800
 O-O2--0.322325                -0.58681000    1.30563300    0.04627500
 H-HO-+0.354579                -2.40508800   -0.08851400   -0.07785400

 1 2 1.0 3 1.0 9 2.0
 2 10 1.0
 3 4 1.0 5 1.0 6 1.0
 4
 5
 6 7 1.0 8 1.0
 7
 8
 9
 10

! XFORCE params
NonBon 3 1 0 0 0.000 0.000 0.500 0.000 0.000 0.833
!
! Strechings
HrmStr1 C OH     0.0000   1.350759058   
HrmStr1 C CT     0.0000   1.509303744  
HrmStr1 C O2     0.0000   1.202776820  
HrmStr1 OH HO    0.0000   0.967707846  
HrmStr1 CT HC    0.0000   1.096238921  
HrmStr1 CT N3    0.0000   1.451635515  
HrmStr1 N3 H     0.0000   1.011261590  
!
! Angle bendings
HrmBnd1 OH C CT    0.0000 111.715395313   
HrmBnd1 OH C O2    0.0000 123.018218852   
HrmBnd1 CT C O2    0.0000 125.238837023   
HrmBnd1 C OH HO    0.0000 107.225731440   
HrmBnd1 C CT HC    0.0000 106.886939494   
HrmBnd1 C CT N3    0.0000 110.607175333   
HrmBnd1 HC CT HC   0.0000 106.223116169   
HrmBnd1 HC CT N3   0.0000 112.936335387   
HrmBnd1 CT N3 H    0.0000 110.708776973   
HrmBnd1 H N3 H     0.0000 108.625234809   
!
VDW H  0.6000  0.0157
VDW O2 1.6612  0.2100
VDW OH 1.7210  0.2104
VDW CT 1.9080  0.1094
VDW C  1.9080  0.0860
VDW N3 1.8750  0.1700
VDW HC 1.4870  0.0157
VDW HO 0.0000  0.0000

