%mem=1GB
%nprocshared=1
%chk=3_zmat_mm_30.chk
#p Amber=(SoftFirst,Print) geom=nocrowd nosymm opt=(maxcycle=300)
   
Title
  
0 1
C-C-+0.299289      -0.477552  0.327359  0.323014 
O-OH--0.289770      -1.755360  -0.232690  0.346471 
C-CT--0.035454      0.610023  -0.687198  0.015454 
H-HC-+0.090426      0.572975  -1.498136  0.787880 
H-HC-+0.095387      0.396020  -1.202399  -0.951307 
N-N3--0.336253      1.974008  -0.127572  -0.033666 
H-H-+0.142619      2.035637  0.619023  -0.722531 
H-H-+0.128282      2.232408  0.274110  0.865536 
O-O2--0.308037      -0.366517  1.516552  0.420379 
H-HO-+0.213510      -1.939617  -0.912637  -0.326278 

NonBon 3 1 0 0 0.000 0.000 0.500 0.000 0.000 -1.2
!SMARTFIELD FF
!Bonds
HrmStr1 C CT 294.154 1.509
HrmStr1 C O2 946.077 1.203
HrmStr1 C OH 431.528 1.351
HrmStr1 CT HC 358.048 1.096
HrmStr1 CT N3 380.823 1.452
HrmStr1 N3 H 506.009 1.011
HrmStr1 OH HO 566.757 0.968
!Angles
HrmBnd1 C CT HC 46.411 106.887
HrmBnd1 C CT N3 59.928 110.607
HrmBnd1 C OH HO 56.552 107.226
HrmBnd1 CT C O2 62.831 125.239
HrmBnd1 CT N3 H 52.602 110.709
HrmBnd1 H N3 H 47.092 108.625
HrmBnd1 HC CT HC 44.676 106.223
HrmBnd1 HC CT N3 52.453 112.936
HrmBnd1 OH C CT 67.917 111.715
HrmBnd1 OH C O2 91.404 123.018
!Torsions
AmbTrs C CT N3 H 0 180 0 0 0.00 25.63 0.00 0. 6.0
AmbTrs CT C OH HO 0 180 0 0 0.00 9691.61 0.00 0. 2.0
AmbTrs HC CT N3 H 0 0 0 0 0.00 16.93 0.00 0. 6.0
AmbTrs O2 C CT HC 0 0 0 0 0.00 14.50 0.00 0. 6.0
AmbTrs O2 C CT N3 0 0 0 0 0.00 14.50 0.00 0. 6.0
AmbTrs O2 C OH HO 0 0 0 0 0.00 18335.01 0.00 0. 2.0
AmbTrs OH C CT HC 0 0 0 0 0.00 14.50 0.00 0. 6.0
AmbTrs OH C CT N3 0 0 0 0 0.00 14.50 0.00 0. 6.0

