%mem=1GB
%nprocshared=1
%chk=5_zmat_mm_90.chk
#p Amber=(SoftFirst,Print) geom=nocrowd nosymm opt=(maxcycle=300)
   
Title
  
0 1
C-C-+0.299289      -0.590939  -0.334944  0.319058 
O-OH--0.289770      -0.642352  0.055708  -1.002467 
C-CT--0.035454      0.826486  -0.312637  0.841582 
H-HC-+0.090426      0.712901  0.718667  1.262603 
H-HC-+0.095387      0.906906  -1.149751  1.586882 
N-N3--0.336253      1.750909  -0.472856  -0.314047 
H-H-+0.142619      1.207146  -0.241124  -1.152222 
H-H-+0.128282      2.285752  0.392937  -0.345553 
O-O2--0.308037      -1.608969  -0.614427  0.901810 
H-HO-+0.213510      -1.565815  0.034839  -1.372695 

NonBon 3 1 0 0 0.000 0.000 0.500 0.000 0.000 -1.2
!SMARTFIELD FF
!Bonds
HrmStr1 C CT 294.154 1.509
HrmStr1 C O2 946.077 1.203
HrmStr1 C OH 431.528 1.351
HrmStr1 CT HC 358.048 1.096
HrmStr1 CT N3 380.823 1.452
HrmStr1 N3 H 506.009 1.011
HrmStr1 OH HO 566.757 0.968
!Angles
HrmBnd1 C CT HC 46.411 106.887
HrmBnd1 C CT N3 59.928 110.607
HrmBnd1 C OH HO 56.552 107.226
HrmBnd1 CT C O2 62.831 125.239
HrmBnd1 CT N3 H 52.602 110.709
HrmBnd1 H N3 H 47.092 108.625
HrmBnd1 HC CT HC 44.676 106.223
HrmBnd1 HC CT N3 52.453 112.936
HrmBnd1 OH C CT 67.917 111.715
HrmBnd1 OH C O2 91.404 123.018
!Torsions
AmbTrs C CT N3 H 0 180 0 0 0.00 25.63 0.00 0. 6.0
AmbTrs CT C OH HO 0 180 0 0 0.00 9691.61 0.00 0. 2.0
AmbTrs HC CT N3 H 0 0 0 0 0.00 16.93 0.00 0. 6.0
AmbTrs O2 C CT HC 0 0 0 0 0.00 14.50 0.00 0. 6.0
AmbTrs O2 C CT N3 0 0 0 0 0.00 14.50 0.00 0. 6.0
AmbTrs O2 C OH HO 0 0 0 0 0.00 18335.01 0.00 0. 2.0
AmbTrs OH C CT HC 0 0 0 0 0.00 14.50 0.00 0. 6.0
AmbTrs OH C CT N3 0 0 0 0 0.00 14.50 0.00 0. 6.0

