%chk=but_mm_all.chk
%mem=500MB
%nprocshared=1
!#P Amber=softonly  Geom=Connectivity  opt=(tight,maxstep=7,maxcycles=100) Freq=intmodes
#P Amber=(Print,Softonly)  Geom=Connectivity  Freq=intmodes

Title C-CTard Required

0 1
 C-CT-+0.000             -2.49467230    0.37114711    0.00000000
 H-HC-+0.000             -2.13801788   -0.63766289    0.00000000
 H-HC-+0.000             -2.13799946    0.87554530   -0.87365150
 H-HC-+0.000             -3.56467230    0.37116029    0.00000000
 C-CT--0.000             -1.98133008    1.09710338    1.25740497
 H-HC--0.000             -0.91133008    1.09708854    1.25740559
 H-HC--0.000             -2.33800421    0.59270574    2.13105626
 C-CT--0.000             -2.49464403    2.54903616    1.25740389
 H-HC--0.000             -2.13796688    3.05343458    0.38375428
 H-HC--0.000             -3.56464403    2.54905141    1.25740050
 C-CT-+0.000             -1.98130440    3.27499042    2.51481107
 H-HC-+0.000             -0.91130621    3.27328526    2.51579053
 H-HC-+0.000             -2.33636276    4.28436281    2.51383567
 H-HC-+0.000             -2.33957337    2.77171975    3.38845974

1 2 1.0 3 1.0 4 1.0 5 1.0
2
3
4
5 6 1.0 7 1.0 8 1.0
6
7
8 9 1.0 10 1.0 11 1.0
9
10
11 12 1.0 13 1.0 14 1.0
12
13
14

! Amber FF master function
NonBon 3 1 0 0 0.000 0.000 0.500 0.000 0.000 0.833
!
HrmStr1 CT HC  1.0   1.0928105263  
HrmStr1 CT CT  1.0  1.5277999217  
!
! Angle bendings
HrmBnd1 HC CT HC      1.00 107.189588  
!HrmBnd1 HC CT CT      1.00 110.156290  
HrmBnd1 CT CT HC     1.00 110.156290  
HrmBnd1 CT CT CT      1.00 113.369247 
!
! VDW
!VDW CT 1.9080  0.1094
!VDW HC 1.4870  0.0157
!
AmbTrs  * CT CT *  0 0 0 0  0.0000  0.00  1.0000  0.0000  9.0

