%mem=1GB
%nprocshared=1
%chk=GauHarm.chk
#p Amber=(SoftOnly,Print) nosymm  Freq=intmodes
 
Title

0 1
O-OW-0.00  0.000000  0.729012  -0.103191
H-HW-0.00  0.000000  0.984051  0.825531
O-OW-0.00  -0.000000  -0.729012  -0.103191
H-HW-0.00  -0.000000  -0.984051  0.825531

! Master function
NonBon 3 1 0 0 0.000 0.000 0.500 0.000 0.000 -1.2
! SMARTFIELD FF
!Bonds
HrmStr1 OW HW  1.0 0.963
HrmStr1 OW OW  1.0 1.458
!Angles
HrmBnd1 HW OW OW  1.0 105.356

